<?xml version="1.0" encoding="UTF-8"?>

<!-- generated on 2021-11-29 15:45:13 by Eclipse SUMO netedit Version 1.11.0
<configuration xmlns:xsi="http://www.w3.org/2001/XMLSchema-instance" xsi:noNamespaceSchemaLocation="http://sumo.dlr.de/xsd/netconvertConfiguration.xsd">

    <input>
        <sumo-net-file value="grid.net.xml"/>
    </input>

    <output>
        <output-file value="grid.net.xml"/>
    </output>

    <processing>
        <geometry.min-radius.fix.railways value="false"/>
        <geometry.max-grade.fix value="false"/>
        <offset.disable-normalization value="true"/>
        <lefthand value="false"/>
    </processing>

    <junctions>
        <no-turnarounds value="true"/>
        <junctions.corner-detail value="5"/>
        <junctions.limit-turn-speed value="5.5"/>
        <rectangular-lane-cut value="false"/>
    </junctions>

    <pedestrian>
        <walkingareas value="false"/>
    </pedestrian>

    <report>
        <aggregate-warnings value="5"/>
    </report>

</configuration>
-->

<net version="1.9" junctionCornerDetail="5" limitTurnSpeed="5.50" xmlns:xsi="http://www.w3.org/2001/XMLSchema-instance" xsi:noNamespaceSchemaLocation="http://sumo.dlr.de/xsd/net_file.xsd">

    <location netOffset="0.00,0.00" convBoundary="0.00,0.00,600.00,600.00" origBoundary="0.00,0.00,800.00,800.00" projParameter="!"/>

    <edge id=":A1_0" function="internal">
        <lane id=":A1_0_0" index="0" speed="3.65" length="4.67" shape="0.00,201.60 -1.20,200.80 -1.60,200.00 -1.20,199.20 0.00,198.40"/>
    </edge>
    <edge id=":A2_0" function="internal">
        <lane id=":A2_0_0" index="0" speed="3.65" length="4.67" shape="0.00,401.60 -1.20,400.80 -1.60,400.00 -1.20,399.20 0.00,398.40"/>
    </edge>
    <edge id=":B0_0" function="internal">
        <lane id=":B0_0_0" index="0" speed="3.65" length="4.67" shape="198.40,0.00 199.20,-1.20 200.00,-1.60 200.80,-1.20 201.60,0.00"/>
    </edge>
    <edge id=":B1_0" function="internal">
        <lane id=":B1_0_0" index="0" speed="6.51" length="9.03" shape="198.40,207.20 198.05,204.75 197.00,203.00 195.25,201.95 192.80,201.60"/>
    </edge>
    <edge id=":B1_1" function="internal">
        <lane id=":B1_1_0" index="0" speed="13.89" length="14.40" shape="198.40,207.20 198.40,192.80"/>
    </edge>
    <edge id=":B1_2" function="internal">
        <lane id=":B1_2_0" index="0" speed="8.00" length="14.19" shape="198.40,207.20 198.95,203.35 200.60,200.60 203.35,198.95 207.20,198.40"/>
    </edge>
    <edge id=":B1_3" function="internal">
        <lane id=":B1_3_0" index="0" speed="6.51" length="9.03" shape="207.20,201.60 204.75,201.95 203.00,203.00 201.95,204.75 201.60,207.20"/>
    </edge>
    <edge id=":B1_4" function="internal">
        <lane id=":B1_4_0" index="0" speed="13.89" length="14.40" shape="207.20,201.60 192.80,201.60"/>
    </edge>
    <edge id=":B1_5" function="internal">
        <lane id=":B1_5_0" index="0" speed="8.00" length="14.19" shape="207.20,201.60 203.35,201.05 200.60,199.40 198.95,196.65 198.40,192.80"/>
    </edge>
    <edge id=":B1_6" function="internal">
        <lane id=":B1_6_0" index="0" speed="6.51" length="9.03" shape="201.60,192.80 201.95,195.25 203.00,197.00 204.75,198.05 207.20,198.40"/>
    </edge>
    <edge id=":B1_7" function="internal">
        <lane id=":B1_7_0" index="0" speed="13.89" length="14.40" shape="201.60,192.80 201.60,207.20"/>
    </edge>
    <edge id=":B1_8" function="internal">
        <lane id=":B1_8_0" index="0" speed="8.00" length="14.19" shape="201.60,192.80 201.05,196.65 199.40,199.40 196.65,201.05 192.80,201.60"/>
    </edge>
    <edge id=":B1_9" function="internal">
        <lane id=":B1_9_0" index="0" speed="6.51" length="9.03" shape="192.80,198.40 195.25,198.05 197.00,197.00 198.05,195.25 198.40,192.80"/>
    </edge>
    <edge id=":B1_10" function="internal">
        <lane id=":B1_10_0" index="0" speed="13.89" length="14.40" shape="192.80,198.40 207.20,198.40"/>
    </edge>
    <edge id=":B1_11" function="internal">
        <lane id=":B1_11_0" index="0" speed="8.00" length="14.19" shape="192.80,198.40 196.65,198.95 199.40,200.60 201.05,203.35 201.60,207.20"/>
    </edge>
    <edge id=":B2_0" function="internal">
        <lane id=":B2_0_0" index="0" speed="6.51" length="9.03" shape="198.40,407.20 198.05,404.75 197.00,403.00 195.25,401.95 192.80,401.60"/>
    </edge>
    <edge id=":B2_1" function="internal">
        <lane id=":B2_1_0" index="0" speed="13.89" length="14.40" shape="198.40,407.20 198.40,392.80"/>
    </edge>
    <edge id=":B2_2" function="internal">
        <lane id=":B2_2_0" index="0" speed="8.00" length="14.19" shape="198.40,407.20 198.95,403.35 200.60,400.60 203.35,398.95 207.20,398.40"/>
    </edge>
    <edge id=":B2_3" function="internal">
        <lane id=":B2_3_0" index="0" speed="6.51" length="9.03" shape="207.20,401.60 204.75,401.95 203.00,403.00 201.95,404.75 201.60,407.20"/>
    </edge>
    <edge id=":B2_4" function="internal">
        <lane id=":B2_4_0" index="0" speed="13.89" length="14.40" shape="207.20,401.60 192.80,401.60"/>
    </edge>
    <edge id=":B2_5" function="internal">
        <lane id=":B2_5_0" index="0" speed="8.00" length="14.19" shape="207.20,401.60 203.35,401.05 200.60,399.40 198.95,396.65 198.40,392.80"/>
    </edge>
    <edge id=":B2_6" function="internal">
        <lane id=":B2_6_0" index="0" speed="6.51" length="9.03" shape="201.60,392.80 201.95,395.25 203.00,397.00 204.75,398.05 207.20,398.40"/>
    </edge>
    <edge id=":B2_7" function="internal">
        <lane id=":B2_7_0" index="0" speed="13.89" length="14.40" shape="201.60,392.80 201.60,407.20"/>
    </edge>
    <edge id=":B2_8" function="internal">
        <lane id=":B2_8_0" index="0" speed="8.00" length="14.19" shape="201.60,392.80 201.05,396.65 199.40,399.40 196.65,401.05 192.80,401.60"/>
    </edge>
    <edge id=":B2_9" function="internal">
        <lane id=":B2_9_0" index="0" speed="6.51" length="9.03" shape="192.80,398.40 195.25,398.05 197.00,397.00 198.05,395.25 198.40,392.80"/>
    </edge>
    <edge id=":B2_10" function="internal">
        <lane id=":B2_10_0" index="0" speed="13.89" length="14.40" shape="192.80,398.40 207.20,398.40"/>
    </edge>
    <edge id=":B2_11" function="internal">
        <lane id=":B2_11_0" index="0" speed="8.00" length="14.19" shape="192.80,398.40 196.65,398.95 199.40,400.60 201.05,403.35 201.60,407.20"/>
    </edge>
    <edge id=":B3_0" function="internal">
        <lane id=":B3_0_0" index="0" speed="3.65" length="4.67" shape="201.60,600.00 200.80,601.20 200.00,601.60 199.20,601.20 198.40,600.00"/>
    </edge>
    <edge id=":C0_0" function="internal">
        <lane id=":C0_0_0" index="0" speed="3.65" length="4.67" shape="398.40,0.00 399.20,-1.20 400.00,-1.60 400.80,-1.20 401.60,0.00"/>
    </edge>
    <edge id=":C1_0" function="internal">
        <lane id=":C1_0_0" index="0" speed="6.51" length="9.03" shape="398.40,207.20 398.05,204.75 397.00,203.00 395.25,201.95 392.80,201.60"/>
    </edge>
    <edge id=":C1_1" function="internal">
        <lane id=":C1_1_0" index="0" speed="13.89" length="14.40" shape="398.40,207.20 398.40,192.80"/>
    </edge>
    <edge id=":C1_2" function="internal">
        <lane id=":C1_2_0" index="0" speed="8.00" length="14.19" shape="398.40,207.20 398.95,203.35 400.60,200.60 403.35,198.95 407.20,198.40"/>
    </edge>
    <edge id=":C1_3" function="internal">
        <lane id=":C1_3_0" index="0" speed="6.51" length="9.03" shape="407.20,201.60 404.75,201.95 403.00,203.00 401.95,204.75 401.60,207.20"/>
    </edge>
    <edge id=":C1_4" function="internal">
        <lane id=":C1_4_0" index="0" speed="13.89" length="14.40" shape="407.20,201.60 392.80,201.60"/>
    </edge>
    <edge id=":C1_5" function="internal">
        <lane id=":C1_5_0" index="0" speed="8.00" length="14.19" shape="407.20,201.60 403.35,201.05 400.60,199.40 398.95,196.65 398.40,192.80"/>
    </edge>
    <edge id=":C1_6" function="internal">
        <lane id=":C1_6_0" index="0" speed="6.51" length="9.03" shape="401.60,192.80 401.95,195.25 403.00,197.00 404.75,198.05 407.20,198.40"/>
    </edge>
    <edge id=":C1_7" function="internal">
        <lane id=":C1_7_0" index="0" speed="13.89" length="14.40" shape="401.60,192.80 401.60,207.20"/>
    </edge>
    <edge id=":C1_8" function="internal">
        <lane id=":C1_8_0" index="0" speed="8.00" length="14.19" shape="401.60,192.80 401.05,196.65 399.40,199.40 396.65,201.05 392.80,201.60"/>
    </edge>
    <edge id=":C1_9" function="internal">
        <lane id=":C1_9_0" index="0" speed="6.51" length="9.03" shape="392.80,198.40 395.25,198.05 397.00,197.00 398.05,195.25 398.40,192.80"/>
    </edge>
    <edge id=":C1_10" function="internal">
        <lane id=":C1_10_0" index="0" speed="13.89" length="14.40" shape="392.80,198.40 407.20,198.40"/>
    </edge>
    <edge id=":C1_11" function="internal">
        <lane id=":C1_11_0" index="0" speed="8.00" length="14.19" shape="392.80,198.40 396.65,198.95 399.40,200.60 401.05,203.35 401.60,207.20"/>
    </edge>
    <edge id=":C2_0" function="internal">
        <lane id=":C2_0_0" index="0" speed="6.51" length="9.03" shape="398.40,407.20 398.05,404.75 397.00,403.00 395.25,401.95 392.80,401.60"/>
    </edge>
    <edge id=":C2_1" function="internal">
        <lane id=":C2_1_0" index="0" speed="13.89" length="14.40" shape="398.40,407.20 398.40,392.80"/>
    </edge>
    <edge id=":C2_2" function="internal">
        <lane id=":C2_2_0" index="0" speed="8.00" length="14.19" shape="398.40,407.20 398.95,403.35 400.60,400.60 403.35,398.95 407.20,398.40"/>
    </edge>
    <edge id=":C2_3" function="internal">
        <lane id=":C2_3_0" index="0" speed="6.51" length="9.03" shape="407.20,401.60 404.75,401.95 403.00,403.00 401.95,404.75 401.60,407.20"/>
    </edge>
    <edge id=":C2_4" function="internal">
        <lane id=":C2_4_0" index="0" speed="13.89" length="14.40" shape="407.20,401.60 392.80,401.60"/>
    </edge>
    <edge id=":C2_5" function="internal">
        <lane id=":C2_5_0" index="0" speed="8.00" length="14.19" shape="407.20,401.60 403.35,401.05 400.60,399.40 398.95,396.65 398.40,392.80"/>
    </edge>
    <edge id=":C2_6" function="internal">
        <lane id=":C2_6_0" index="0" speed="6.51" length="9.03" shape="401.60,392.80 401.95,395.25 403.00,397.00 404.75,398.05 407.20,398.40"/>
    </edge>
    <edge id=":C2_7" function="internal">
        <lane id=":C2_7_0" index="0" speed="13.89" length="14.40" shape="401.60,392.80 401.60,407.20"/>
    </edge>
    <edge id=":C2_8" function="internal">
        <lane id=":C2_8_0" index="0" speed="8.00" length="14.19" shape="401.60,392.80 401.05,396.65 399.40,399.40 396.65,401.05 392.80,401.60"/>
    </edge>
    <edge id=":C2_9" function="internal">
        <lane id=":C2_9_0" index="0" speed="6.51" length="9.03" shape="392.80,398.40 395.25,398.05 397.00,397.00 398.05,395.25 398.40,392.80"/>
    </edge>
    <edge id=":C2_10" function="internal">
        <lane id=":C2_10_0" index="0" speed="13.89" length="14.40" shape="392.80,398.40 407.20,398.40"/>
    </edge>
    <edge id=":C2_11" function="internal">
        <lane id=":C2_11_0" index="0" speed="8.00" length="14.19" shape="392.80,398.40 396.65,398.95 399.40,400.60 401.05,403.35 401.60,407.20"/>
    </edge>
    <edge id=":C3_0" function="internal">
        <lane id=":C3_0_0" index="0" speed="3.65" length="4.67" shape="401.60,600.00 400.80,601.20 400.00,601.60 399.20,601.20 398.40,600.00"/>
    </edge>
    <edge id=":D1_0" function="internal">
        <lane id=":D1_0_0" index="0" speed="3.65" length="4.67" shape="600.00,198.40 601.20,199.20 601.60,200.00 601.20,200.80 600.00,201.60"/>
    </edge>
    <edge id=":D2_0" function="internal">
        <lane id=":D2_0_0" index="0" speed="3.65" length="4.67" shape="600.00,398.40 601.20,399.20 601.60,400.00 601.20,400.80 600.00,401.60"/>
    </edge>

    <edge id="A1B1" from="A1" to="B1" priority="-1">
        <lane id="A1B1_0" index="0" speed="13.89" length="192.80" shape="0.00,198.40 192.80,198.40"/>
    </edge>
    <edge id="A2B2" from="A2" to="B2" priority="-1">
        <lane id="A2B2_0" index="0" speed="13.89" length="192.80" shape="0.00,398.40 192.80,398.40"/>
    </edge>
    <edge id="B0B1" from="B0" to="B1" priority="-1">
        <lane id="B0B1_0" index="0" speed="13.89" length="192.80" shape="201.60,0.00 201.60,192.80"/>
    </edge>
    <edge id="B1A1" from="B1" to="A1" priority="-1">
        <lane id="B1A1_0" index="0" speed="13.89" length="192.80" shape="192.80,201.60 0.00,201.60"/>
    </edge>
    <edge id="B1B0" from="B1" to="B0" priority="-1">
        <lane id="B1B0_0" index="0" speed="13.89" length="192.80" shape="198.40,192.80 198.40,0.00"/>
    </edge>
    <edge id="B1B2" from="B1" to="B2" priority="-1">
        <lane id="B1B2_0" index="0" speed="13.89" length="185.60" shape="201.60,207.20 201.60,392.80"/>
    </edge>
    <edge id="B1C1" from="B1" to="C1" priority="-1">
        <lane id="B1C1_0" index="0" speed="13.89" length="185.60" shape="207.20,198.40 392.80,198.40"/>
    </edge>
    <edge id="B2A2" from="B2" to="A2" priority="-1">
        <lane id="B2A2_0" index="0" speed="13.89" length="192.80" shape="192.80,401.60 0.00,401.60"/>
    </edge>
    <edge id="B2B1" from="B2" to="B1" priority="-1">
        <lane id="B2B1_0" index="0" speed="13.89" length="185.60" shape="198.40,392.80 198.40,207.20"/>
    </edge>
    <edge id="B2B3" from="B2" to="B3" priority="-1">
        <lane id="B2B3_0" index="0" speed="13.89" length="192.80" shape="201.60,407.20 201.60,600.00"/>
    </edge>
    <edge id="B2C2" from="B2" to="C2" priority="-1">
        <lane id="B2C2_0" index="0" speed="13.89" length="185.60" shape="207.20,398.40 392.80,398.40"/>
    </edge>
    <edge id="B3B2" from="B3" to="B2" priority="-1">
        <lane id="B3B2_0" index="0" speed="13.89" length="192.80" shape="198.40,600.00 198.40,407.20"/>
    </edge>
    <edge id="C0C1" from="C0" to="C1" priority="-1">
        <lane id="C0C1_0" index="0" speed="13.89" length="192.80" shape="401.60,0.00 401.60,192.80"/>
    </edge>
    <edge id="C1B1" from="C1" to="B1" priority="-1">
        <lane id="C1B1_0" index="0" speed="13.89" length="185.60" shape="392.80,201.60 207.20,201.60"/>
    </edge>
    <edge id="C1C0" from="C1" to="C0" priority="-1">
        <lane id="C1C0_0" index="0" speed="13.89" length="192.80" shape="398.40,192.80 398.40,0.00"/>
    </edge>
    <edge id="C1C2" from="C1" to="C2" priority="-1">
        <lane id="C1C2_0" index="0" speed="13.89" length="185.60" shape="401.60,207.20 401.60,392.80"/>
    </edge>
    <edge id="C1D1" from="C1" to="D1" priority="-1">
        <lane id="C1D1_0" index="0" speed="13.89" length="192.80" shape="407.20,198.40 600.00,198.40"/>
    </edge>
    <edge id="C2B2" from="C2" to="B2" priority="-1">
        <lane id="C2B2_0" index="0" speed="13.89" length="185.60" shape="392.80,401.60 207.20,401.60"/>
    </edge>
    <edge id="C2C1" from="C2" to="C1" priority="-1">
        <lane id="C2C1_0" index="0" speed="13.89" length="185.60" shape="398.40,392.80 398.40,207.20"/>
    </edge>
    <edge id="C2C3" from="C2" to="C3" priority="-1">
        <lane id="C2C3_0" index="0" speed="13.89" length="192.80" shape="401.60,407.20 401.60,600.00"/>
    </edge>
    <edge id="C2D2" from="C2" to="D2" priority="-1">
        <lane id="C2D2_0" index="0" speed="13.89" length="192.80" shape="407.20,398.40 600.00,398.40"/>
    </edge>
    <edge id="C3C2" from="C3" to="C2" priority="-1">
        <lane id="C3C2_0" index="0" speed="13.89" length="192.80" shape="398.40,600.00 398.40,407.20"/>
    </edge>
    <edge id="D1C1" from="D1" to="C1" priority="-1">
        <lane id="D1C1_0" index="0" speed="13.89" length="192.80" shape="600.00,201.60 407.20,201.60"/>
    </edge>
    <edge id="D2C2" from="D2" to="C2" priority="-1">
        <lane id="D2C2_0" index="0" speed="13.89" length="192.80" shape="600.00,401.60 407.20,401.60"/>
    </edge>

    <tlLogic id="B1" type="static" programID="default" offset="0">
        <phase duration="18" state="GGGrrrrrrrrr" name="1"/>
        <phase duration="3"  state="yyyrrrrrrrrr" name="1_int"/>
        <phase duration="20" state="rrrGGGrrrrrr" name="2"/>
        <phase duration="3"  state="rrryyyrrrrrr" name="2_int"/>
        <phase duration="20" state="rrrrrrGGGrrr" name="3"/>
        <phase duration="3"  state="rrrrrryyyrrr" name="3_int"/>
        <phase duration="20" state="rrrrrrrrrGGG" name="4"/>
        <phase duration="3"  state="rrrrrrrrryyy" name="4_int"/>
    </tlLogic>
    <tlLogic id="B2" type="static" programID="default" offset="0">
        <phase duration="18" state="GGGrrrrrrrrr" name="1"/>
        <phase duration="3"  state="yyyrrrrrrrrr" name="1_int"/>
        <phase duration="20" state="rrrGGGrrrrrr" name="2"/>
        <phase duration="3"  state="rrryyyrrrrrr" name="2_int"/>
        <phase duration="20" state="rrrrrrGGGrrr" name="3"/>
        <phase duration="3"  state="rrrrrryyyrrr" name="3_int"/>
        <phase duration="20" state="rrrrrrrrrGGG" name="4"/>
        <phase duration="3"  state="rrrrrrrrryyy" name="4_int"/>
    </tlLogic>
    <tlLogic id="C1" type="static" programID="default" offset="0">
        <phase duration="18" state="GGGrrrrrrrrr" name="1"/>
        <phase duration="3"  state="yyyrrrrrrrrr" name="1_int"/>
        <phase duration="20" state="rrrGGGrrrrrr" name="2"/>
        <phase duration="3"  state="rrryyyrrrrrr" name="2_int"/>
        <phase duration="20" state="rrrrrrGGGrrr" name="3"/>
        <phase duration="3"  state="rrrrrryyyrrr" name="3_int"/>
        <phase duration="20" state="rrrrrrrrrGGG" name="4"/>
        <phase duration="3"  state="rrrrrrrrryyy" name="4_int"/>
    </tlLogic>
    <tlLogic id="C2" type="static" programID="default" offset="0">
        <phase duration="18" state="GGGrrrrrrrrr" name="1"/>
        <phase duration="3"  state="yyyrrrrrrrrr" name="1_int"/>
        <phase duration="20" state="rrrGGGrrrrrr" name="2"/>
        <phase duration="3"  state="rrryyyrrrrrr" name="2_int"/>
        <phase duration="20" state="rrrrrrGGGrrr" name="3"/>
        <phase duration="3"  state="rrrrrryyyrrr" name="3_int"/>
        <phase duration="20" state="rrrrrrrrrGGG" name="4"/>
        <phase duration="3"  state="rrrrrrrrryyy" name="4_int"/>
    </tlLogic>

    <junction id="A1" type="priority" x="0.00" y="200.00" incLanes="B1A1_0" intLanes=":A1_0_0" shape="0.00,200.00 0.00,203.20 0.00,200.00">
        <request index="0" response="0" foes="0" cont="0"/>
        <param key="end_node" value="true"/>
    </junction>
    <junction id="A2" type="priority" x="0.00" y="400.00" incLanes="B2A2_0" intLanes=":A2_0_0" shape="0.00,400.00 0.00,403.20 0.00,400.00">
        <request index="0" response="0" foes="0" cont="0"/>
        <param key="end_node" value="true"/>
    </junction>
    <junction id="B0" type="priority" x="200.00" y="0.00" incLanes="B1B0_0" intLanes=":B0_0_0" shape="200.00,0.00 196.80,0.00 200.00,0.00">
        <request index="0" response="0" foes="0" cont="0"/>
        <param key="end_node" value="true"/>
    </junction>
    <junction id="B1" type="traffic_light" x="200.00" y="200.00" incLanes="B2B1_0 C1B1_0 B0B1_0 A1B1_0" intLanes=":B1_0_0 :B1_1_0 :B1_2_0 :B1_3_0 :B1_4_0 :B1_5_0 :B1_6_0 :B1_7_0 :B1_8_0 :B1_9_0 :B1_10_0 :B1_11_0" shape="196.80,207.20 203.20,207.20 203.64,204.98 204.20,204.20 204.98,203.64 205.98,203.31 207.20,203.20 207.20,196.80 204.98,196.36 204.20,195.80 203.64,195.02 203.31,194.02 203.20,192.80 196.80,192.80 196.36,195.02 195.80,195.80 195.02,196.36 194.02,196.69 192.80,196.80 192.80,203.20 195.02,203.64 195.80,204.20 196.36,204.98 196.69,205.98">
        <request index="0"  response="000000000000" foes="000100010000" cont="0"/>
        <request index="1"  response="000000000000" foes="111100110000" cont="0"/>
        <request index="2"  response="000011000000" foes="110011110000" cont="0"/>
        <request index="3"  response="000010000000" foes="100010000000" cont="0"/>
        <request index="4"  response="000110000111" foes="100110000111" cont="0"/>
        <request index="5"  response="011110000110" foes="011110000110" cont="0"/>
        <request index="6"  response="000000000000" foes="010000000100" cont="0"/>
        <request index="7"  response="000000000000" foes="110000111100" cont="0"/>
        <request index="8"  response="000000000011" foes="110000110011" cont="0"/>
        <request index="9"  response="000000000010" foes="000000100010" cont="0"/>
        <request index="10" response="000111000110" foes="000111100110" cont="0"/>
        <request index="11" response="000110011110" foes="000110011110" cont="0"/>
    </junction>
    <junction id="B2" type="traffic_light" x="200.00" y="400.00" incLanes="B3B2_0 C2B2_0 B1B2_0 A2B2_0" intLanes=":B2_0_0 :B2_1_0 :B2_2_0 :B2_3_0 :B2_4_0 :B2_5_0 :B2_6_0 :B2_7_0 :B2_8_0 :B2_9_0 :B2_10_0 :B2_11_0" shape="196.80,407.20 203.20,407.20 203.64,404.98 204.20,404.20 204.98,403.64 205.98,403.31 207.20,403.20 207.20,396.80 204.98,396.36 204.20,395.80 203.64,395.02 203.31,394.02 203.20,392.80 196.80,392.80 196.36,395.02 195.80,395.80 195.02,396.36 194.02,396.69 192.80,396.80 192.80,403.20 195.02,403.64 195.80,404.20 196.36,404.98 196.69,405.98">
        <request index="0"  response="000000000000" foes="000100010000" cont="0"/>
        <request index="1"  response="000000000000" foes="111100110000" cont="0"/>
        <request index="2"  response="000011000000" foes="110011110000" cont="0"/>
        <request index="3"  response="000010000000" foes="100010000000" cont="0"/>
        <request index="4"  response="000110000111" foes="100110000111" cont="0"/>
        <request index="5"  response="011110000110" foes="011110000110" cont="0"/>
        <request index="6"  response="000000000000" foes="010000000100" cont="0"/>
        <request index="7"  response="000000000000" foes="110000111100" cont="0"/>
        <request index="8"  response="000000000011" foes="110000110011" cont="0"/>
        <request index="9"  response="000000000010" foes="000000100010" cont="0"/>
        <request index="10" response="000111000110" foes="000111100110" cont="0"/>
        <request index="11" response="000110011110" foes="000110011110" cont="0"/>
    </junction>
    <junction id="B3" type="priority" x="200.00" y="600.00" incLanes="B2B3_0" intLanes=":B3_0_0" shape="200.00,600.00 203.20,600.00 200.00,600.00" fringe="outer">
        <request index="0" response="0" foes="0" cont="0"/>
        <param key="end_node" value="true"/>
    </junction>
    <junction id="C0" type="priority" x="400.00" y="0.00" incLanes="C1C0_0" intLanes=":C0_0_0" shape="400.00,0.00 396.80,0.00 400.00,0.00">
        <request index="0" response="0" foes="0" cont="0"/>
        <param key="end_node" value="true"/>
    </junction>
    <junction id="C1" type="traffic_light" x="400.00" y="200.00" incLanes="C2C1_0 D1C1_0 C0C1_0 B1C1_0" intLanes=":C1_0_0 :C1_1_0 :C1_2_0 :C1_3_0 :C1_4_0 :C1_5_0 :C1_6_0 :C1_7_0 :C1_8_0 :C1_9_0 :C1_10_0 :C1_11_0" shape="396.80,207.20 403.20,207.20 403.64,204.98 404.20,204.20 404.98,203.64 405.98,203.31 407.20,203.20 407.20,196.80 404.98,196.36 404.20,195.80 403.64,195.02 403.31,194.02 403.20,192.80 396.80,192.80 396.36,195.02 395.80,195.80 395.02,196.36 394.02,196.69 392.80,196.80 392.80,203.20 395.02,203.64 395.80,204.20 396.36,204.98 396.69,205.98">
        <request index="0"  response="000000000000" foes="000100010000" cont="0"/>
        <request index="1"  response="000000000000" foes="111100110000" cont="0"/>
        <request index="2"  response="000011000000" foes="110011110000" cont="0"/>
        <request index="3"  response="000010000000" foes="100010000000" cont="0"/>
        <request index="4"  response="000110000111" foes="100110000111" cont="0"/>
        <request index="5"  response="011110000110" foes="011110000110" cont="0"/>
        <request index="6"  response="000000000000" foes="010000000100" cont="0"/>
        <request index="7"  response="000000000000" foes="110000111100" cont="0"/>
        <request index="8"  response="000000000011" foes="110000110011" cont="0"/>
        <request index="9"  response="000000000010" foes="000000100010" cont="0"/>
        <request index="10" response="000111000110" foes="000111100110" cont="0"/>
        <request index="11" response="000110011110" foes="000110011110" cont="0"/>
    </junction>
    <junction id="C2" type="traffic_light" x="400.00" y="400.00" incLanes="C3C2_0 D2C2_0 C1C2_0 B2C2_0" intLanes=":C2_0_0 :C2_1_0 :C2_2_0 :C2_3_0 :C2_4_0 :C2_5_0 :C2_6_0 :C2_7_0 :C2_8_0 :C2_9_0 :C2_10_0 :C2_11_0" shape="396.80,407.20 403.20,407.20 403.64,404.98 404.20,404.20 404.98,403.64 405.98,403.31 407.20,403.20 407.20,396.80 404.98,396.36 404.20,395.80 403.64,395.02 403.31,394.02 403.20,392.80 396.80,392.80 396.36,395.02 395.80,395.80 395.02,396.36 394.02,396.69 392.80,396.80 392.80,403.20 395.02,403.64 395.80,404.20 396.36,404.98 396.69,405.98">
        <request index="0"  response="000000000000" foes="000100010000" cont="0"/>
        <request index="1"  response="000000000000" foes="111100110000" cont="0"/>
        <request index="2"  response="000011000000" foes="110011110000" cont="0"/>
        <request index="3"  response="000010000000" foes="100010000000" cont="0"/>
        <request index="4"  response="000110000111" foes="100110000111" cont="0"/>
        <request index="5"  response="011110000110" foes="011110000110" cont="0"/>
        <request index="6"  response="000000000000" foes="010000000100" cont="0"/>
        <request index="7"  response="000000000000" foes="110000111100" cont="0"/>
        <request index="8"  response="000000000011" foes="110000110011" cont="0"/>
        <request index="9"  response="000000000010" foes="000000100010" cont="0"/>
        <request index="10" response="000111000110" foes="000111100110" cont="0"/>
        <request index="11" response="000110011110" foes="000110011110" cont="0"/>
    </junction>
    <junction id="C3" type="priority" x="400.00" y="600.00" incLanes="C2C3_0" intLanes=":C3_0_0" shape="400.00,600.00 403.20,600.00 400.00,600.00">
        <request index="0" response="0" foes="0" cont="0"/>
        <param key="end_node" value="true"/>
    </junction>
    <junction id="D1" type="priority" x="600.00" y="200.00" incLanes="C1D1_0" intLanes=":D1_0_0" shape="600.00,200.00 600.00,196.80 600.00,200.00">
        <request index="0" response="0" foes="0" cont="0"/>
        <param key="end_node" value="true"/>
    </junction>
    <junction id="D2" type="priority" x="600.00" y="400.00" incLanes="C2D2_0" intLanes=":D2_0_0" shape="600.00,400.00 600.00,396.80 600.00,400.00">
        <request index="0" response="0" foes="0" cont="0"/>
        <param key="end_node" value="true"/>
    </junction>

    <connection from="A1B1" to="B1B0" fromLane="0" toLane="0" via=":B1_9_0" tl="B1" linkIndex="9" dir="r" state="o"/>
    <connection from="A1B1" to="B1C1" fromLane="0" toLane="0" via=":B1_10_0" tl="B1" linkIndex="10" dir="s" state="o"/>
    <connection from="A1B1" to="B1B2" fromLane="0" toLane="0" via=":B1_11_0" tl="B1" linkIndex="11" dir="l" state="o"/>
    <connection from="A2B2" to="B2B1" fromLane="0" toLane="0" via=":B2_9_0" tl="B2" linkIndex="9" dir="r" state="o"/>
    <connection from="A2B2" to="B2C2" fromLane="0" toLane="0" via=":B2_10_0" tl="B2" linkIndex="10" dir="s" state="o"/>
    <connection from="A2B2" to="B2B3" fromLane="0" toLane="0" via=":B2_11_0" tl="B2" linkIndex="11" dir="l" state="o"/>
    <connection from="B0B1" to="B1C1" fromLane="0" toLane="0" via=":B1_6_0" tl="B1" linkIndex="6" dir="r" state="O"/>
    <connection from="B0B1" to="B1B2" fromLane="0" toLane="0" via=":B1_7_0" tl="B1" linkIndex="7" dir="s" state="O"/>
    <connection from="B0B1" to="B1A1" fromLane="0" toLane="0" via=":B1_8_0" tl="B1" linkIndex="8" dir="l" state="o"/>
    <connection from="B1A1" to="A1B1" fromLane="0" toLane="0" via=":A1_0_0" dir="t" state="M"/>
    <connection from="B1B0" to="B0B1" fromLane="0" toLane="0" via=":B0_0_0" dir="t" state="M"/>
    <connection from="B1B2" to="B2C2" fromLane="0" toLane="0" via=":B2_6_0" tl="B2" linkIndex="6" dir="r" state="O"/>
    <connection from="B1B2" to="B2B3" fromLane="0" toLane="0" via=":B2_7_0" tl="B2" linkIndex="7" dir="s" state="O"/>
    <connection from="B1B2" to="B2A2" fromLane="0" toLane="0" via=":B2_8_0" tl="B2" linkIndex="8" dir="l" state="o"/>
    <connection from="B1C1" to="C1C0" fromLane="0" toLane="0" via=":C1_9_0" tl="C1" linkIndex="9" dir="r" state="o"/>
    <connection from="B1C1" to="C1D1" fromLane="0" toLane="0" via=":C1_10_0" tl="C1" linkIndex="10" dir="s" state="o"/>
    <connection from="B1C1" to="C1C2" fromLane="0" toLane="0" via=":C1_11_0" tl="C1" linkIndex="11" dir="l" state="o"/>
    <connection from="B2A2" to="A2B2" fromLane="0" toLane="0" via=":A2_0_0" dir="t" state="M"/>
    <connection from="B2B1" to="B1A1" fromLane="0" toLane="0" via=":B1_0_0" tl="B1" linkIndex="0" dir="r" state="O"/>
    <connection from="B2B1" to="B1B0" fromLane="0" toLane="0" via=":B1_1_0" tl="B1" linkIndex="1" dir="s" state="O"/>
    <connection from="B2B1" to="B1C1" fromLane="0" toLane="0" via=":B1_2_0" tl="B1" linkIndex="2" dir="l" state="o"/>
    <connection from="B2B3" to="B3B2" fromLane="0" toLane="0" via=":B3_0_0" dir="t" state="M"/>
    <connection from="B2C2" to="C2C1" fromLane="0" toLane="0" via=":C2_9_0" tl="C2" linkIndex="9" dir="r" state="o"/>
    <connection from="B2C2" to="C2D2" fromLane="0" toLane="0" via=":C2_10_0" tl="C2" linkIndex="10" dir="s" state="o"/>
    <connection from="B2C2" to="C2C3" fromLane="0" toLane="0" via=":C2_11_0" tl="C2" linkIndex="11" dir="l" state="o"/>
    <connection from="B3B2" to="B2A2" fromLane="0" toLane="0" via=":B2_0_0" tl="B2" linkIndex="0" dir="r" state="O"/>
    <connection from="B3B2" to="B2B1" fromLane="0" toLane="0" via=":B2_1_0" tl="B2" linkIndex="1" dir="s" state="O"/>
    <connection from="B3B2" to="B2C2" fromLane="0" toLane="0" via=":B2_2_0" tl="B2" linkIndex="2" dir="l" state="o"/>
    <connection from="C0C1" to="C1D1" fromLane="0" toLane="0" via=":C1_6_0" tl="C1" linkIndex="6" dir="r" state="O"/>