<?xml version="1.0" encoding="UTF-8"?>

<!-- generated on 2021-12-12 13:01:45 by Eclipse SUMO netedit Version 1.11.0
<configuration xmlns:xsi="http://www.w3.org/2001/XMLSchema-instance" xsi:noNamespaceSchemaLocation="http://sumo.dlr.de/xsd/netconvertConfiguration.xsd">

    <input>
        <sumo-net-file value="grid.net.xml"/>
    </input>

    <output>
        <output-file value="grid.net.xml"/>
    </output>

    <processing>
        <geometry.min-radius.fix.railways value="false"/>
        <geometry.max-grade.fix value="false"/>
        <offset.disable-normalization value="true"/>
        <lefthand value="false"/>
    </processing>

    <junctions>
        <no-turnarounds value="true"/>
        <junctions.corner-detail value="5"/>
        <junctions.limit-turn-speed value="5.5"/>
        <rectangular-lane-cut value="false"/>
    </junctions>

    <pedestrian>
        <walkingareas value="false"/>
    </pedestrian>

    <report>
        <aggregate-warnings value="5"/>
    </report>

</configuration>
-->

<net version="1.9" junctionCornerDetail="5" limitTurnSpeed="5.50" xmlns:xsi="http://www.w3.org/2001/XMLSchema-instance" xsi:noNamespaceSchemaLocation="http://sumo.dlr.de/xsd/net_file.xsd">

    <location netOffset="0.00,0.00" convBoundary="-100.00,0.00,200.00,100.00" origBoundary="-10000000000.00,-10000000000.00,10000000000.00,10000000000.00" projParameter="!"/>

    <edge id=":B1_0" function="internal">
        <lane id=":B1_0_0" index="0" speed="13.89" length="11.20" shape="-4.00,-1.60 7.20,-1.60"/>
    </edge>
    <edge id=":B1_1" function="internal">
        <lane id=":B1_1_0" index="0" speed="6.51" length="9.03" shape="-4.00,-1.60 -1.55,-1.25 0.20,-0.20 1.25,1.55 1.60,4.00"/>
    </edge>
    <edge id=":C1_0" function="internal">
        <lane id=":C1_0_0" index="0" speed="13.89" length="11.20" shape="96.00,-1.60 107.20,-1.60"/>
    </edge>
    <edge id=":C1_1" function="internal">
        <lane id=":C1_1_0" index="0" speed="6.51" length="9.03" shape="96.00,-1.60 98.45,-1.25 100.20,-0.20 101.25,1.55 101.60,4.00"/>
    </edge>

    <edge id="A1B1" from="A1" to="B1" priority="-1" length="200.00">
        <lane id="A1B1_0" index="0" speed="13.89" length="200.00" shape="-100.00,-1.60 -4.00,-1.60"/>
    </edge>
    <edge id="B1B2" from="B1" to="B2" priority="-1" length="200.00">
        <lane id="B1B2_0" index="0" speed="13.89" length="200.00" shape="1.60,4.00 1.60,100.00"/>
    </edge>
    <edge id="B1C1" from="B1" to="C1" priority="-1" length="200.00">
        <lane id="B1C1_0" index="0" speed="13.89" length="200.00" shape="7.20,-1.60 96.00,-1.60"/>
    </edge>
    <edge id="C1C2" from="C1" to="C2" priority="-1" length="200.00">
        <lane id="C1C2_0" index="0" speed="13.89" length="200.00" shape="101.60,4.00 101.60,100.00"/>
    </edge>
    <edge id="C1D1" from="C1" to="D1" priority="-1" length="200.00">
        <lane id="C1D1_0" index="0" speed="13.89" length="200.00" shape="107.20,-1.60 200.00,-1.60"/>
    </edge>

    <tlLogic id="B1" type="static" programID="default" offset="0">
        <phase duration="62" state="GG" name="1"/>
        <phase duration="3"  state="yy" name="1_int"/>
        <phase duration="32" state="rr" name="2"/>
        <phase duration="3"  state="yy" name="2_int"/>
    </tlLogic>
    <tlLogic id="C1" type="static" programID="default" offset="0">
        <phase duration="52" state="GG" name="1"/>
        <phase duration="3"  state="yy" name="1_int"/>
        <phase duration="42" state="rr" name="2"/>
        <phase duration="3"  state="yy" name="2_int"/>
    </tlLogic>

    <junction id="A1" type="dead_end" x="-100.00" y="0.00" incLanes="" intLanes="" shape="-100.00,0.00 -100.00,-3.20">
        <param key="end_node" value="true"/>
    </junction>
    <junction id="B1" type="traffic_light" x="0.00" y="0.00" incLanes="A1B1_0" intLanes=":B1_0_0 :B1_1_0" shape="0.00,4.00 3.20,4.00 3.64,1.78 4.20,1.00 4.98,0.44 5.98,0.11 7.20,0.00 7.20,-3.20 -4.00,-3.20 -4.00,0.00 -1.78,0.44 -1.00,1.00 -0.44,1.78 -0.11,2.78">
        <request index="0" response="00" foes="00" cont="0"/>
        <request index="1" response="00" foes="00" cont="0"/>
    </junction>
    <junction id="B2" type="dead_end" x="0.00" y="100.00" incLanes="B1B2_0" intLanes="" shape="3.20,100.00 0.00,100.00">
        <param key="end_node" value="true"/>
    </junction>
    <junction id="C1" type="traffic_light" x="100.00" y="0.00" incLanes="B1C1_0" intLanes=":C1_0_0 :C1_1_0" shape="100.00,4.00 103.20,4.00 103.64,1.78 104.20,1.00 104.98,0.44 105.98,0.11 107.20,0.00 107.20,-3.20 96.00,-3.20 96.00,0.00 98.22,0.44 99.00,1.00 99.56,1.78 99.89,2.78">
        <request index="0" response="00" foes="00" cont="0"/>
        <request index="1" response="00" foes="00" cont="0"/>
    </junction>
    <junction id="C2" type="dead_end" x="100.00" y="100.00" incLanes="C1C2_0" intLanes="" shape="103.20,100.00 100.00,100.00">
        <param key="end_node" value="true"/>
    </junction>
    <junction id="D1" type="dead_end" x="200.00" y="0.00" incLanes="C1D1_0" intLanes="" shape="200.00,-3.20 200.00,0.00">
        <param key="end_node" value="true"/>
    </junction>

    <connection from="A1B1" to="B1C1" fromLane="0" toLane="0" via=":B1_0_0" tl="B1" linkIndex="0" dir="s" state="O"/>
    <connection from="A1B1" to="B1B2" fromLane="0" toLane="0" via=":B1_1_0" tl="B1" linkIndex="1" dir="l" state="O"/>
    <connection from="B1C1" to="C1D1" fromLane="0" toLane="0" via=":C1_0_0" tl="C1" linkIndex="0" dir="s" state="O"/>
    <connection from="B1C1" to="C1C2" fromLane="0" toLane="0" via=":C1_1_0" tl="C1" linkIndex="1" dir="l" state="O"/>

    <connection from=":B1_0" to="B1C1" fromLane="0" toLane="0" dir="s" state="M"/>
    <connection from=":B1_1" to="B1B2" fromLane="0" toLane="0" dir="l" state="M"/>
    <connection from=":C1_0" to="C1D1" fromLane="0" toLane="0" dir="s" state="M"/>
    <connection from=":C1_1" to="C1C2" fromLane="0" toLane="0" dir="l" state="M"/>

</net>
